Clear

New Circuit.Ponda_33_11kV basekv=11 bus1=Madkai_SS pu=1.0

! Residential loadshape (double peak)
New Loadshape.Res_Goa_2025 npts=24 interval=1.0 mult=[0.35 0.30 0.28 0.28 0.30 0.35 0.60 0.80 0.70 0.55 0.50 0.45 0.45 0.48 0.50 0.55 0.65 0.75 0.90 1.00 0.95 0.85 0.65 0.45]

! Commercial loadshape (daytime bell curve)
New Loadshape.Comm_Goa_2025 npts=24 interval=1.0 mult=[0.10 0.10 0.10 0.10 0.10 0.10 0.15 0.25 0.60 0.85 0.95 0.98 1.00 0.98 0.95 0.90 0.80 0.60 0.40 0.25 0.20 0.15 0.10 0.10]

New Linecode.ACSR_Conductor nphases=3 r1=0.13 x1=0.0851 units=km

! === MAIN FEEDER TRUNKS ===
New Line.M01 bus1=Madkai_SS        bus2=3_Way_Kharwada    phases=3 length=1.77  units=km linecode=ACSR_Conductor
New Line.M02 bus1=Madkai_SS        bus2=Konar_Gaunem_DTC  phases=3 length=1.0   units=km linecode=ACSR_Conductor

! === FEEDER 1 BRANCHES ===
New Line.LU1  bus1=3_Way_Kharwada   bus2=Ram_Mandir        phases=3 length=0.482 units=km linecode=ACSR_Conductor
New Line.LU2  bus1=Ram_Mandir       bus2=Dempo_DTC         phases=3 length=0.808 units=km linecode=ACSR_Conductor
New Line.LU3  bus1=Dempo_DTC        bus2=RB_Engg           phases=3 length=0.321 units=km linecode=ACSR_Conductor
New Line.LU4  bus1=RB_Engg          bus2=Undir_Bakale      phases=3 length=0.324 units=km linecode=ACSR_Conductor
New Line.LU5  bus1=Undir_Bakale     bus2=MuleBhat          phases=3 length=0.643 units=km linecode=ACSR_Conductor
New Line.LU6  bus1=MuleBhat         bus2=Maruti_Temple     phases=3 length=0.965 units=km linecode=ACSR_Conductor
New Line.LU7  bus1=Maruti_Temple    bus2=Chikali           phases=3 length=0.804 units=km linecode=ACSR_Conductor
New Line.LU8  bus1=Chikali          bus2=Adpai             phases=3 length=0.813 units=km linecode=ACSR_Conductor
New Line.LU9  bus1=Adpai            bus2=Durbhat           phases=3 length=0.941 units=km linecode=ACSR_Conductor
New Line.LU10 bus1=Durbhat          bus2=Sewerage          phases=3 length=0.01  units=km linecode=ACSR_Conductor
New Line.LU11 bus1=Sewerage         bus2=Kaswada           phases=3 length=0.482 units=km linecode=ACSR_Conductor
New Line.LU12 bus1=Kaswada          bus2=Londiyar_Wadem    phases=3 length=0.470 units=km linecode=ACSR_Conductor
New Line.LU13 bus1=Londiyar_Wadem   bus2=3_Way_Talaulim    phases=3 length=0.03  units=km linecode=ACSR_Conductor
New Line.LU14 bus1=3_Way_Talaulim   bus2=New_Talaulim      phases=3 length=0.22  units=km linecode=ACSR_Conductor
New Line.LU15 bus1=New_Talaulim     bus2=Wadi              phases=3 length=0.967 units=km linecode=ACSR_Conductor
New Line.LU16 bus1=3_Way_Talaulim   bus2=Talaulim          phases=3 length=0.450 units=km linecode=ACSR_Conductor
New Line.LU17 bus1=Talaulim         bus2=Mahalakshmi_Nagar phases=3 length=0.955 units=km linecode=ACSR_Conductor
New Line.LU18 bus1=Mahalakshmi_Nagar bus2=Paunwada         phases=3 length=0.490 units=km linecode=ACSR_Conductor
New Line.LU19 bus1=Paunwada         bus2=3_Way_Don_Khamb   phases=3 length=0.241 units=km linecode=ACSR_Conductor

! Branch 1 (Sub-branches)
New Line.LU20 bus1=3_Way_Don_Khamb  bus2=Kavle_Math        phases=3 length=0.477 units=km linecode=ACSR_Conductor
New Line.LU21 bus1=Kavle_Math       bus2=Shantadurga_Old   phases=3 length=0.341 units=km linecode=ACSR_Conductor
New Line.LU22 bus1=Shantadurga_Old  bus2=3_Way_Shantadurga phases=3 length=0.015 units=km linecode=ACSR_Conductor
New Line.LU23 bus1=3_Way_Shantadurga bus2=Sanatan_1        phases=3 length=0.510 units=km linecode=ACSR_Conductor
New Line.LU24 bus1=Sanatan_1        bus2=Sanatan_2         phases=3 length=0.02  units=km linecode=ACSR_Conductor
New Line.LU25 bus1=Sanatan_2        bus2=Ramnathi_Devasthan phases=3 length=0.085 units=km linecode=ACSR_Conductor
New Line.LU26 bus1=Ramnathi_Devasthan bus2=Ramnathi        phases=3 length=0.120 units=km linecode=ACSR_Conductor
New Line.LU27 bus1=Ramnathi         bus2=3_Way_Ramnathi    phases=3 length=0.355 units=km linecode=ACSR_Conductor
New Line.LU28 bus1=3_Way_Ramnathi   bus2=RPRS_School       phases=3 length=0.326 units=km linecode=ACSR_Conductor
New Line.LU29 bus1=RPRS_School      bus2=Tolulem           phases=3 length=0.679 units=km linecode=ACSR_Conductor
New Line.LU30 bus1=Tolulem          bus2=Kharwada          phases=3 length=1.28  units=km linecode=ACSR_Conductor
New Line.LU31 bus1=Kharwada         bus2=3_Way_Kharwada    phases=3 length=0.182 units=km linecode=ACSR_Conductor

! Branch 2 (Sub-branches)
New Line.LU32 bus1=3_Way_Shantadurga bus2=Shantadurga_New  phases=3 length=0.012 units=km linecode=ACSR_Conductor
New Line.LU33 bus1=Shantadurga_New  bus2=Galshire          phases=3 length=0.149 units=km linecode=ACSR_Conductor
New Line.LU34 bus1=Galshire         bus2=3_Way_Galshire    phases=3 length=0.491 units=km linecode=ACSR_Conductor
New Line.LU35 bus1=3_Way_Galshire   bus2=3_Way_Harish_Bar  phases=3 length=0.20  units=km linecode=ACSR_Conductor
New Line.LU36 bus1=3_Way_Harish_Bar bus2=Sneh_Mandir       phases=3 length=0.162 units=km linecode=ACSR_Conductor
New Line.LU37 bus1=Sneh_Mandir      bus2=Rajendra_Talak    phases=3 length=0.188 units=km linecode=ACSR_Conductor
New Line.LU38 bus1=Rajendra_Talak   bus2=Ritesh_Developers phases=3 length=0.109 units=km linecode=ACSR_Conductor
New Line.LU39 bus1=Ritesh_Developers bus2=Venkatesh_Leela  phases=3 length=0.164 units=km linecode=ACSR_Conductor
New Line.LU40 bus1=Venkatesh_Leela  bus2=Perigol           phases=3 length=0.190 units=km linecode=ACSR_Conductor
New Line.LU41 bus1=Perigol          bus2=Manmohan_Singh    phases=3 length=0.150 units=km linecode=ACSR_Conductor
New Line.LU42 bus1=Manmohan_Singh   bus2=Dhumre            phases=3 length=0.677 units=km linecode=ACSR_Conductor
New Line.LU43 bus1=Dhumre           bus2=3_Way_Royal_Enfield phases=3 length=0.506 units=km linecode=ACSR_Conductor
New Line.LU44 bus1=3_Way_Royal_Enfield bus2=Shashikala_Pai phases=3 length=0.912 units=km linecode=ACSR_Conductor
New Line.LU45 bus1=Shashikala_Pai   bus2=3_Way_Galshire    phases=3 length=0.702 units=km linecode=ACSR_Conductor

! Branch 3 (Sub-branches)
New Line.LU46 bus1=3_Way_Don_Khamb  bus2=Kapileshwari      phases=3 length=0.498 units=km linecode=ACSR_Conductor
New Line.LU47 bus1=Kapileshwari     bus2=3_Way_Rathamal    phases=3 length=0.127 units=km linecode=ACSR_Conductor
New Line.LU48 bus1=3_Way_Rathamal   bus2=Matruchaya        phases=3 length=0.321 units=km linecode=ACSR_Conductor
New Line.LU49 bus1=Matruchaya       bus2=3_Way_Shantinagar phases=3 length=0.109 units=km linecode=ACSR_Conductor
New Line.LU50 bus1=3_Way_Shantinagar bus2=Vamneshwar       phases=3 length=0.327 units=km linecode=ACSR_Conductor
New Line.LU51 bus1=3_Way_Shantinagar bus2=Golden_Properties phases=3 length=0.160 units=km linecode=ACSR_Conductor
New Line.LU52 bus1=Golden_Properties bus2=Ritesh           phases=3 length=0.054 units=km linecode=ACSR_Conductor

! === FEEDER 2 BRANCHES (Continuing from M02) ===
New Line.LU54 bus1=Konar_Gaunem_DTC bus2=MG_School_DTC     phases=3 length=0.907 units=km linecode=ACSR_Conductor
New Line.LU55 bus1=MG_School_DTC    bus2=Chaferan_DTC      phases=3 length=0.718 units=km linecode=ACSR_Conductor
New Line.LU56 bus1=Chaferan_DTC     bus2=Shigumomand_DTC   phases=3 length=0.812 units=km linecode=ACSR_Conductor
New Line.LU57 bus1=Konar_Gaunem_DTC bus2=Mogru_DTC         phases=3 length=1.0   units=km linecode=ACSR_Conductor
New Line.LU58 bus1=Mogru_DTC        bus2=Shamrao_Builders_DTC phases=3 length=0.803 units=km linecode=ACSR_Conductor
New Line.LU59 bus1=Shamrao_Builders_DTC bus2=Kunal_DTC     phases=3 length=0.224 units=km linecode=ACSR_Conductor
New Line.LU60 bus1=Kunal_DTC        bus2=Pearl_DTC         phases=3 length=0.087 units=km linecode=ACSR_Conductor
New Line.LU61 bus1=Pearl_DTC        bus2=Mahalaxmi_Bandora_DTC phases=3 length=0.336 units=km linecode=ACSR_Conductor
New Line.LU62 bus1=Mahalaxmi_Bandora_DTC bus2=Agra_Shala_DTC phases=3 length=0.083 units=km linecode=ACSR_Conductor
New Line.LU63 bus1=Agra_Shala_DTC   bus2=Tilve_RMU         phases=3 length=0.403 units=km linecode=ACSR_Conductor
New Line.LU64 bus1=Tilve_RMU        bus2=Hindu_Jan_Jagruti_DTC phases=3 length=0.132 units=km linecode=ACSR_Conductor
New Line.LU65 bus1=Hindu_Jan_Jagruti_DTC bus2=Vagdor_DTC   phases=3 length=0.160 units=km linecode=ACSR_Conductor
New Line.LU66 bus1=Tilve_RMU        bus2=Nageshi_Temple_DTC phases=3 length=0.534 units=km linecode=ACSR_Conductor
New Line.LU67 bus1=Nageshi_Temple_DTC bus2=Dhonshi_DTC     phases=3 length=0.275 units=km linecode=ACSR_Conductor
New Line.LU68 bus1=Nageshi_Temple_DTC bus2=Bandora_Panchayat_RMU phases=3 length=0.426 units=km linecode=ACSR_Conductor
New Line.LU69 bus1=Bandora_Panchayat_RMU bus2=KashimathGround_DTC phases=3 length=0.857 units=km linecode=ACSR_Conductor
New Line.LU70 bus1=Bandora_Panchayat_RMU bus2=Rainguinim   phases=3 length=0.324 units=km linecode=ACSR_Conductor
New Line.LU73 bus1=3_Way_Harish_Bar bus2=3_Way_Sneh_Mandir phases=3 length=0.295 units=km linecode=ACSR_Conductor

New Transformer.Ram_Mandir        phases=3 windings=2 buses=[Ram_Mandir Ram_MandirBus1] conns=[delta wye] kvs=[11 0.415] kVA=200 %LoadLoss=1.0133 Xhl=4.3844 %NoLoadLoss=0.13667
New Transformer.Dempo_DTC         phases=3 windings=2 buses=[Dempo_DTC Dempo_DTCBus1] conns=[delta wye] kvs=[11 0.415] kVA=200 %LoadLoss=1.0133 Xhl=4.3844 %NoLoadLoss=0.13667
New Transformer.RB_Engg           phases=3 windings=2 buses=[RB_Engg RB_EnggBus1] conns=[delta wye] kvs=[11 0.415] kVA=200 %LoadLoss=1.0133 Xhl=4.3844 %NoLoadLoss=0.13667
New Transformer.Undir_Bakale      phases=3 windings=2 buses=[Undir_Bakale Undir_BakaleBus1] conns=[delta wye] kvs=[11 0.415] kVA=200 %LoadLoss=1.0133 Xhl=4.3844 %NoLoadLoss=0.13667
New Transformer.MuleBhat          phases=3 windings=2 buses=[MuleBhat MuleBhatBus1] conns=[delta wye] kvs=[11 0.415] kVA=200 %LoadLoss=1.0133 Xhl=4.3844 %NoLoadLoss=0.13667
New Transformer.Maruti_Temple     phases=3 windings=2 buses=[Maruti_Temple Maruti_TempleBus1] conns=[delta wye] kvs=[11 0.415] kVA=200 %LoadLoss=1.0133 Xhl=4.3844 %NoLoadLoss=0.13667
New Transformer.Chikali           phases=3 windings=2 buses=[Chikali ChikaliBus1] conns=[delta wye] kvs=[11 0.415] kVA=200 %LoadLoss=1.0133 Xhl=4.3844 %NoLoadLoss=0.13667
New Transformer.Adpai             phases=3 windings=2 buses=[Adpai AdpaiBus1] conns=[delta wye] kvs=[11 0.415] kVA=200 %LoadLoss=1.0133 Xhl=4.3844 %NoLoadLoss=0.13667
New Transformer.Durbhat           phases=3 windings=2 buses=[Durbhat DurbhatBus1] conns=[delta wye] kvs=[11 0.415] kVA=200 %LoadLoss=1.0133 Xhl=4.3844 %NoLoadLoss=0.13667
New Transformer.Sewerage          phases=3 windings=2 buses=[Sewerage SewerageBus1] conns=[delta wye] kvs=[11 0.415] kVA=200 %LoadLoss=1.0133 Xhl=4.3844 %NoLoadLoss=0.13667
New Transformer.Kaswada           phases=3 windings=2 buses=[Kaswada KaswadaBus1] conns=[delta wye] kvs=[11 0.415] kVA=200 %LoadLoss=1.0133 Xhl=4.3844 %NoLoadLoss=0.13667
New Transformer.Londiyar_Wadem    phases=3 windings=2 buses=[Londiyar_Wadem Londiyar_WademBus1] conns=[delta wye] kvs=[11 0.415] kVA=200 %LoadLoss=1.0133 Xhl=4.3844 %NoLoadLoss=0.13667
New Transformer.New_Talaulim      phases=3 windings=2 buses=[New_Talaulim New_TalaulimBus1] conns=[delta wye] kvs=[11 0.415] kVA=200 %LoadLoss=1.0133 Xhl=4.3844 %NoLoadLoss=0.13667
New Transformer.Wadi              phases=3 windings=2 buses=[Wadi WadiBus1] conns=[delta wye] kvs=[11 0.415] kVA=200 %LoadLoss=1.0133 Xhl=4.3844 %NoLoadLoss=0.13667
New Transformer.Talaulim          phases=3 windings=2 buses=[Talaulim TalaulimBus1] conns=[delta wye] kvs=[11 0.415] kVA=200 %LoadLoss=1.0133 Xhl=4.5484 %NoLoadLoss=0.13667
New Transformer.Mahalakshmi_Nagar phases=3 windings=2 buses=[Mahalakshmi_Nagar Mahalakshmi_NagarBus1] conns=[delta wye] kvs=[11 0.415] kVA=200 %LoadLoss=1.0133 Xhl=4.3844 %NoLoadLoss=0.13667
New Transformer.Paunwada          phases=3 windings=2 buses=[Paunwada PaunwadaBus1] conns=[delta wye] kvs=[11 0.415] kVA=200 %LoadLoss=1.0133 Xhl=6.4205 %NoLoadLoss=0.13667
New Transformer.Kavle_Math        phases=3 windings=2 buses=[Kavle_Math Kavle_MathBus1] conns=[delta wye] kvs=[11 0.415] kVA=200 %LoadLoss=1.0133 Xhl=4.1891 %NoLoadLoss=0.13667
New Transformer.Shantadurga_Old   phases=3 windings=2 buses=[Shantadurga_Old Shantadurga_OldBus1] conns=[delta wye] kvs=[11 0.415] kVA=200 %LoadLoss=1.0133 Xhl=4.3844 %NoLoadLoss=0.13667
New Transformer.Sanatan_1         phases=3 windings=2 buses=[Sanatan_1 Sanatan_1Bus1] conns=[delta wye] kvs=[11 0.415] kVA=200 %LoadLoss=1.0133 Xhl=4.3844 %NoLoadLoss=0.13667
New Transformer.Sanatan_2         phases=3 windings=2 buses=[Sanatan_2 Sanatan_2Bus1] conns=[delta wye] kvs=[11 0.415] kVA=200 %LoadLoss=1.0133 Xhl=4.3844 %NoLoadLoss=0.13667
New Transformer.Ramnathi_Devasthan phases=3 windings=2 buses=[Ramnathi_Devasthan Ramnathi_DevasthanBus1] conns=[delta wye] kvs=[11 0.415] kVA=200 %LoadLoss=1.0133 Xhl=4.1994 %NoLoadLoss=0.13667
New Transformer.Ramnathi          phases=3 windings=2 buses=[Ramnathi RamnathiBus1] conns=[delta wye] kvs=[11 0.415] kVA=200 %LoadLoss=1.0133 Xhl=4.3844 %NoLoadLoss=0.13667
New Transformer.RPRS_School       phases=3 windings=2 buses=[RPRS_School RPRS_SchoolBus1] conns=[delta wye] kvs=[11 0.415] kVA=200 %LoadLoss=1.0133 Xhl=4.3844 %NoLoadLoss=0.13667
New Transformer.Tolulem           phases=3 windings=2 buses=[Tolulem TolulemBus1] conns=[delta wye] kvs=[11 0.415] kVA=200 %LoadLoss=1.0133 Xhl=4.4972 %NoLoadLoss=0.13667
New Transformer.Kharwada          phases=3 windings=2 buses=[Kharwada KharwadaBus1] conns=[delta wye] kvs=[11 0.415] kVA=100 %LoadLoss=1.5667 Xhl=4.3844 %NoLoadLoss=0.08333
New Transformer.Shantadurga_New   phases=3 windings=2 buses=[Shantadurga_New Shantadurga_NewBus1] conns=[delta wye] kvs=[11 0.415] kVA=400 %LoadLoss=0.7416 Xhl=4.4384 %NoLoadLoss=0.12083
New Transformer.Galshire          phases=3 windings=2 buses=[Galshire GalshireBus1] conns=[delta wye] kvs=[11 0.415] kVA=200 %LoadLoss=1.0133 Xhl=4.3844 %NoLoadLoss=0.13667
New Transformer.Rajendra_Talak    phases=3 windings=2 buses=[Rajendra_Talak Rajendra_TalakBus1] conns=[delta wye] kvs=[11 0.415] kVA=630 %LoadLoss=0.72804 Xhl=4.3190 %NoLoadLoss=0.11322
New Transformer.Ritesh_Developers phases=3 windings=2 buses=[Ritesh_Developers Ritesh_DevelopersBus1] conns=[delta wye] kvs=[11 0.415] kVA=400 %LoadLoss=0.7416 Xhl=4.3844 %NoLoadLoss=0.1208
New Transformer.Venkatesh_Leela   phases=3 windings=2 buses=[Venkatesh_Leela Venkatesh_LeelaBus1] conns=[delta wye] kvs=[11 0.415] kVA=200 %LoadLoss=1.0133 Xhl=4.1788 %NoLoadLoss=0.13667
New Transformer.Perigol           phases=3 windings=2 buses=[Perigol PerigolBus1] conns=[delta wye] kvs=[11 0.415] kVA=400 %LoadLoss=0.7416 Xhl=4.3844 %NoLoadLoss=0.12083
New Transformer.Manmohan_Singh    phases=3 windings=2 buses=[Manmohan_Singh Manmohan_SinghBus1] conns=[delta wye] kvs=[11 0.415] kVA=200 %LoadLoss=1.0133 Xhl=3.9211 %NoLoadLoss=0.13667
New Transformer.Dhumre            phases=3 windings=2 buses=[Dhumre DhumreBus1] conns=[delta wye] kvs=[11 0.415] kVA=200 %LoadLoss=1.0133 Xhl=4.3844 %NoLoadLoss=0.13667
New Transformer.Shashikala_Pai    phases=3 windings=2 buses=[Shashikala_Pai Shashikala_PaiBus1] conns=[delta wye] kvs=[11 0.415] kVA=200 %LoadLoss=1.0133 Xhl=4.3844 %NoLoadLoss=0.13667
New Transformer.Kapileshwari      phases=3 windings=2 buses=[Kapileshwari KapileshwariBus1] conns=[delta wye] kvs=[11 0.415] kVA=200 %LoadLoss=1.0133 Xhl=4.1788 %NoLoadLoss=0.13667
New Transformer.Matruchaya        phases=3 windings=2 buses=[Matruchaya MatruchayaBus1] conns=[delta wye] kvs=[11 0.415] kVA=200 %LoadLoss=1.0133 Xhl=4.3844 %NoLoadLoss=0.13667
New Transformer.Vamneshwar        phases=3 windings=2 buses=[Vamneshwar VamneshwarBus1] conns=[delta wye] kvs=[11 0.415] kVA=200 %LoadLoss=1.0133 Xhl=4.3844 %NoLoadLoss=0.13667
New Transformer.Golden_Properties phases=3 windings=2 buses=[Golden_Properties Golden_PropertiesBus1] conns=[delta wye] kvs=[11 0.415] kVA=200 %LoadLoss=1.0133 Xhl=4.3844 %NoLoadLoss=0.13667
New Transformer.Ritesh            phases=3 windings=2 buses=[Ritesh RiteshBus1] conns=[delta wye] kvs=[11 0.415] kVA=200 %LoadLoss=1.0133 Xhl=4.3844 %NoLoadLoss=0.13667

! Batch 2 (Delta-Wye, 200kVA, LV Bus format: X_LV)
New Transformer.T_Sneh_Mandir      phases=3 windings=2 buses=[Sneh_Mandir, SnehMandir_LV]      conns=[delta wye] kvs=[11 0.415] kVA=200 %LoadLoss=1.0133 Xhl=4.3844 %NoLoadLoss=0.13667
New Transformer.T_Raiguinim        phases=3 windings=2 buses=[Rainguinim, Rainguinim_LV]       conns=[delta wye] kvs=[11 0.415] kVA=200 %LoadLoss=1.0133 Xhl=4.1899 %NoLoadLoss=0.13667
New Transformer.T_BandoraPanchayat phases=3 windings=2 buses=[Bandora_Panchayat_RMU, BandoraP_LV] conns=[delta wye] kvs=[11 0.415] kVA=200 %LoadLoss=1.0133 Xhl=4.3844 %NoLoadLoss=0.13667
New Transformer.T_KashimathGround  phases=3 windings=2 buses=[KashimathGround_DTC, KashimathG_LV] conns=[delta wye] kvs=[11 0.415] kVA=200 %LoadLoss=1.0133 Xhl=4.3844 %NoLoadLoss=0.13667
New Transformer.T_NageshiTemple    phases=3 windings=2 buses=[Nageshi_Temple_DTC, NageshiT_LV]     conns=[delta wye] kvs=[11 0.415] kVA=200 %LoadLoss=1.0133 Xhl=4.2817 %NoLoadLoss=0.13667
New Transformer.T_Dhonshi          phases=3 windings=2 buses=[Dhonshi_DTC, Dhonshi_LV]             conns=[delta wye] kvs=[11 0.415] kVA=200 %LoadLoss=1.0133 Xhl=4.3844 %NoLoadLoss=0.13667
New Transformer.T_AgraShala        phases=3 windings=2 buses=[Agra_Shala_DTC, AgraShala_LV]        conns=[delta wye] kvs=[11 0.415] kVA=200 %LoadLoss=1.0133 Xhl=4.1480 %NoLoadLoss=0.13667
New Transformer.T_HinduJan         phases=3 windings=2 buses=[Hindu_Jan_Jagruti_DTC, HinduJan_LV] conns=[delta wye] kvs=[11 0.415] kVA=200 %LoadLoss=1.0133 Xhl=4.3844 %NoLoadLoss=0.13667
New Transformer.T_Vagdor           phases=3 windings=2 buses=[Vagdor_DTC, Vagdor_LV]               conns=[delta wye] kvs=[11 0.415] kVA=200 %LoadLoss=1.0133 Xhl=4.3844 %NoLoadLoss=0.13667
New Transformer.T_Mahalaxmi        phases=3 windings=2 buses=[Mahalaxmi_Bandora_DTC, Mahalaxmi_LV] conns=[delta wye] kvs=[11 0.415] kVA=200 %LoadLoss=1.0133 Xhl=4.3844 %NoLoadLoss=0.13667
New Transformer.T_Pearl            phases=3 windings=2 buses=[Pearl_DTC, Pearl_LV]                 conns=[delta wye] kvs=[11 0.415] kVA=200 %LoadLoss=1.0133 Xhl=4.3844 %NoLoadLoss=0.13667
New Transformer.T_Kunal            phases=3 windings=2 buses=[Kunal_DTC, Kunal_LV]                 conns=[delta wye] kvs=[11 0.415] kVA=200 %LoadLoss=1.0133 Xhl=4.3844 %NoLoadLoss=0.13667
New Transformer.T_Shamrao          phases=3 windings=2 buses=[Shamrao_Builders_DTC, Shamrao_LV]    conns=[delta wye] kvs=[11 0.415] kVA=200 %LoadLoss=1.0133 Xhl=4.3844 %NoLoadLoss=0.13667
New Transformer.T_Mogru            phases=3 windings=2 buses=[Mogru_DTC, Mogru_LV]                 conns=[delta wye] kvs=[11 0.415] kVA=200 %LoadLoss=1.0133 Xhl=4.3844 %NoLoadLoss=0.13667
New Transformer.T_KonarGaunem      phases=3 windings=2 buses=[Konar_Gaunem_DTC, KonarGaunem_LV]    conns=[delta wye] kvs=[11 0.415] kVA=200 %LoadLoss=1.0133 Xhl=4.6611 %NoLoadLoss=0.13667
New Transformer.T_MGSchool         phases=3 windings=2 buses=[MG_School_DTC, MGSchool_LV]          conns=[delta wye] kvs=[11 0.415] kVA=200 %LoadLoss=1.0333 Xhl=4.3798 %NoLoadLoss=0.13667
New Transformer.T_Chaferan         phases=3 windings=2 buses=[Chaferan_DTC, Chaferan_LV]           conns=[delta wye] kvs=[11 0.415] kVA=200 %LoadLoss=1.0133 Xhl=4.1788 %NoLoadLoss=0.13667
New Transformer.T_Shigumomand      phases=3 windings=2 buses=[Shigumomand_DTC, Shigumomand_LV]     conns=[delta wye] kvs=[11 0.415] kVA=200 %LoadLoss=1.0133 Xhl=4.3844 %NoLoadLoss=0.13667








! Source: 33/11kV Colony SS (Curti), feeding Curti/Ponda-I/Khadpabandh
New Vsource.ColonySS basekv=11 bus1=Colony_SS pu=1.0 MVAsc3=250 MVAsc1=210 

!....................................................!
!     CURTI FEEDERS
!....................................................!


!----------------------------!
!         LINE DATA         !
!----------------------------!

New Line.S01 bus1=Colony_SS  bus2=3_way_goa_dairy_1 phases=3 length=0.27 units=km r1=0.13 x1=0.0851
New Line.L1  bus1=3_way_goa_dairy_1 bus2=forensic phases=3 length=0.25 units=km r1=0.13 x1=0.0851
New Line.L2  bus1=forensic bus2=Dada_vaidya phases=3 length=0.26 units=km r1=0.13 x1=0.0851
New Line.L3  bus1=Dada_vaidya bus2=3_Way_Dada_vaidya phases=3 length=0.02 units=km r1=0.13 x1=0.0851
New Line.L4  bus1=Agarwal_gardens bus2=Fiberglass phases=3 length=0.26 units=km r1=0.13 x1=0.0851
New Line.L5  bus1=Fiberglass bus2=4_Way_saiservice phases=3 length=0.1 units=km r1=0.13 x1=0.0851
New Line.L6  bus1=Agarwal_htc bus2=Yummy_icecream phases=3 length=0.18 units=km r1=0.13 x1=0.0851
New Line.L7  bus1=Yummy_icecream bus2=Shivlal phases=3 length=0.11 units=km r1=0.13 x1=0.0851
New Line.L8  bus1=Shivlal bus2=Kelbai phases=3 length=0.85 units=km r1=0.13 x1=0.0851
New Line.L9  bus1=Kelbai bus2=3_Way_Doctor phases=3 length=0.47 units=km r1=0.13 x1=0.0851
New Line.L10  bus1=3_Way_Doctor bus2=Surya_masala phases=3 length=0.1 units=km r1=0.13 x1=0.0851   !0.47 to 0.1
New Line.L11  bus1=Surya_masala bus2=Pisgal phases=3 length=0.4 units=km r1=0.13 x1=0.0851

New Line.L12  bus1=3_way_goa_dairy_1 bus2=3_Way_GoaDairy2 phases=3 length=0.02 units=km r1=0.13 x1=0.0851
New Line.L13  bus1=3_Way_GoaDairy2 bus2=Dairy_HTC phases=3 length=0.23 units=km r1=0.13 x1=0.0851
New Line.L14  bus1=3_Way_GoaDairy2 bus2=Dairy_Old phases=3 length=0.23 units=km r1=0.13 x1=0.0851
New Line.L15  bus1=Dairy_Old bus2=3_Way_Microwave phases=3 length=0.88 units=km r1=0.13 x1=0.0851
New Line.L16  bus1=3_Way_Microwave bus2=3_Way_verekar phases=3 length=0.495 units=km r1=0.13 x1=0.0851
New Line.L17  bus1=3_Way_verekar bus2=3_way_sahakari phases=3 length=0.166 units=km r1=0.13 x1=0.0851

New Line.L18  bus1=4_Way_saiservice bus2=ECAP_HTC phases=3 length=0.18 units=km r1=0.13 x1=0.0851
New Line.L19  bus1=ECAP_HTC bus2=Prakash phases=3 length=0.025 units=km r1=0.13 x1=0.0851
New Line.L20  bus1=Prakash bus2=Kayji_Skyline phases=3 length=0.12 units=km r1=0.13 x1=0.0851
New Line.L21  bus1=Kayji_Skyline bus2=Rudra_Developer phases=3 length=0.17 units=km r1=0.13 x1=0.0851
New Line.L22  bus1=Rudra_Developer bus2=3_Way_khadpabandh phases=3 length=0.06 units=km r1=0.13 x1=0.0851

New Line.L23  bus1=4_Way_saiservice bus2=Associate phases=3 length=0.67 units=km r1=0.13 x1=0.0851
New Line.L24  bus1=Associate bus2=KV_School phases=3 length=0.16 units=km r1=0.13 x1=0.0851
New Line.L25  bus1=KV_School bus2=Korde phases=3 length=0.56 units=km r1=0.13 x1=0.0851
New Line.L26  bus1=Korde bus2=Kapat_Factory phases=3 length=0.85 units=km r1=0.13 x1=0.0851
New Line.L27  bus1=Kapat_Factory bus2=2_Way_ConemI phases=3 length=1.23 units=km r1=0.13 x1=0.0851

New Line.L28  bus1=3_Way_Dada_vaidya bus2=Agarwal_gardens phases=3 length=0.39 units=km r1=0.13 x1=0.0851
New Line.L29  bus1=3_Way_Dada_vaidya bus2=3_Way_Copperwada_2 phases=3 length=0.855 units=km r1=0.13 x1=0.0851
New Line.L30  bus1=3_Way_Copperwada_2 bus2=3_Way_Copperwada_1 phases=3 length=0.305 units=km r1=0.13 x1=0.0851
New Line.L31  bus1=4_Way_saiservice bus2=Agarwal_htc phases=3 length=0.14 units=km r1=0.13 x1=0.0851
New Line.L32  bus1=3_Way_Doctor bus2=Doctor_bakale phases=3 length=0.47 units=km r1=0.13 x1=0.0851
New Line.L33  bus1=Doctor_bakale bus2=3_Way_Copperwada_1 phases=3 length=1.32 units=km r1=0.13 x1=0.0851
New Line.L34  bus1=3_Way_Microwave bus2=Microwave phases=3 length=0.02 units=km r1=0.13 x1=0.0851
New Line.L35  bus1=3_Way_verekar bus2=4_Way_verekar phases=3 length=0.4 units=km r1=0.13 x1=0.0851
New Line.L36  bus1=4_Way_verekar bus2=3_Way_Copperwada_1 phases=3 length=0.88 units=km r1=0.13 x1=0.0851







!----------------------------!
!       TRANSFORMERS        !
!----------------------------!



New Transformer.T1 phases=3 windings=2 buses=[forensic, forensicBus1] conns=[delta wye] kvs=[11 0.415] kvas=[200 200] %Rs=[1.41 1.41] Xhl=3.760000
New Transformer.T2 phases=3 windings=2 buses=[Dada_vaidya, Dada_vaidyaBus2] conns=[delta wye] kvs=[11 0.415] kvas=[100 100] %Rs=[1.41 1.41] Xhl=3.908964
New Transformer.T3 phases=3 windings=2 buses=[Agarwal_gardens, Agarwal_gardensBus3] conns=[delta wye] kvs=[11 0.415] kvas=[200 200] %Rs=[1.41 1.41] Xhl=3.760000
New Transformer.T4 phases=3 windings=2 buses=[Fiberglass, FiberglassBus4] conns=[delta wye] kvs=[11 0.415] kvas=[100 100] %Rs=[1.41 1.41] Xhl=3.908964
New Transformer.T5 phases=3 windings=2 buses=[Agarwal_htc, Agarwal_htcBus5] conns=[delta wye] kvs=[11 0.415] kvas=[1250 1250] %Rs=[1.41 1.41] Xhl=3.884276
New Transformer.T6 phases=3 windings=2 buses=[Yummy_icecream, Yummy_icecreamBus6] conns=[delta wye] kvs=[11 0.415] kvas=[100 100] %Rs=[1.41 1.41] Xhl=3.908964
New Transformer.T7 phases=3 windings=2 buses=[Shivlal, ShivlalBus7] conns=[delta wye] kvs=[11 0.415] kvas=[200 200] %Rs=[1.41 1.41] Xhl=3.760000
New Transformer.T8 phases=3 windings=2 buses=[Kelbai, KelbaiBus8] conns=[delta wye] kvs=[11 0.415] kvas=[100 100] %Rs=[1.41 1.41] Xhl=3.908964
New Transformer.T9 phases=3 windings=2 buses=[Surya_masala, Surya_masalaBus9] conns=[delta wye] kvs=[11 0.415] kvas=[200 200] %Rs=[1.41 1.41] Xhl=3.760000
New Transformer.T10 phases=3 windings=2 buses=[Doctor_bakale, Doctor_bakaleBus10] conns=[delta wye] kvs=[11 0.415] kvas=[160 160] %Rs=[1.41 1.41] Xhl=3.945897

New Transformer.T11  phases=3 windings=2 buses=[ECAP_HTC, ECAP_HTCBus11] conns=[delta wye] kvs=[11 0.415] kvas=[1000 1000] %Rs=[1.41 1.41] Xhl=3.760000
New Transformer.T12 phases=3 windings=2 buses=[Prakash, PrakashBus12] conns=[delta wye] kvs=[11 0.415] kvas=[100 100] %Rs=[1.41 1.41] Xhl=3.908964
New Transformer.T13 phases=3 windings=2 buses=[Kayji_Skyline, Kayji_SkylineBus13] conns=[delta wye] kvs=[11 0.415] kvas=[400 400] %Rs=[1.41 1.41] Xhl=4.031625
New Transformer.T14 phases=3 windings=2 buses=[Rudra_Developer, Rudra_DeveloperBus14] conns=[delta wye] kvs=[11 0.415] kvas=[160 160] %Rs=[1.41 1.41] Xhl=3.945897

New Transformer.T15 phases=3 windings=2 buses=[Associate, AssociateBus15] conns=[delta wye] kvs=[11 0.415] kvas=[400 400] %Rs=[1.41 1.41] Xhl=4.031625
New Transformer.T16 phases=3 windings=2 buses=[KV_School, KV_SchoolBus16] conns=[delta wye] kvs=[11 0.415] kvas=[160 160] %Rs=[1.41 1.41] Xhl=3.945897
New Transformer.T17 phases=3 windings=2 buses=[Korde, KordeBus17] conns=[delta wye] kvs=[11 0.415] kvas=[100 100] %Rs=[1.41 1.41] Xhl=3.908964
New Transformer.T18 phases=3 windings=2 buses=[Kapat_Factory, Kapat_FactoryBus18] conns=[delta wye] kvs=[11 0.415] kvas=[100 100] %Rs=[1.41 1.41] Xhl=3.908964

New Transformer.T19 phases=3 windings=2 buses=[4_Way_verekar, VerekarBus19] conns=[delta wye] kvs=[11 0.415] kvas=[200 200] %Rs=[1.41 1.41] Xhl=3.760000
New Transformer.T20 phases=3 windings=2 buses=[Microwave, MicrowaveBus20] conns=[delta wye] kvs=[11 0.415] kvas=[160 160] %Rs=[1.41 1.41] Xhl=3.945897

New Transformer.T21 phases=3 windings=2 buses=[Dairy_Old, Dairy_OldBus21] conns=[delta wye] kvs=[11 0.415] kvas=[200 200] %Rs=[1.41 1.41] Xhl=3.760000
New Transformer.T22 phases=3 windings=2 buses=[Dairy_HTC, Dairy_HTCBus22] conns=[delta wye] kvs=[11 0.415] kvas=[500 500] %Rs=[1.41 1.41] Xhl=3.884276
New Transformer.T23 phases=3 windings=2 buses=[Pisgal, PisgalBus23] conns=[delta wye] kvs=[11 0.415] kvas=[160 160] %Rs=[1.41 1.41] Xhl=3.945897


!....................................................!
!    PONDA-1 FEEDERS
!....................................................!


!----------------------------!
!         LINE DATA         !
!----------------------------!


New Line.F01 bus1=Colony_SS           bus2=Golden_Nest           phases=3 length=0.662  units=km r1=0.13 x1=0.0851
New Line.F02 bus1=Golden_Nest         bus2=Ratnadeep_Apt       phases=3 length=0.29 units=km r1=0.13 x1=0.0851
New Line.F03 bus1=Ratnadeep_Apt        bus2=Surekha_Parkar       phases=3 length=0.257 units=km r1=0.13 x1=0.0851
New Line.F04 bus1=Surekha_Parkar       bus2=Nagzar       phases=3 length=0.309 units=km r1=0.13 x1=0.0851
New Line.F05 bus1=Nagzar      bus2=3_Way_Suraj_bar       phases=3 length=0.02 units=km r1=0.13 x1=0.0851
New Line.F06 bus1=3_Way_Suraj_bar      bus2=Sarthak_Nest       phases=3 length=0.1 units=km r1=0.13 x1=0.0851
New Line.F07 bus1=Sarthak_Nest     bus2=Progress      phases=3 length=0.148 units=km r1=0.13 x1=0.0851
New Line.F08 bus1=Progress     bus2=3_Way_progress     phases=3 length=0.02 units=km r1=0.13 x1=0.0851
New Line.F09 bus1=3_Way_progress bus2=Commertial_Tax     phases=3 length=0.092 units=km r1=0.13 x1=0.0851
New Line.F10 bus1=Commertial_Tax bus2=Sadashiv_Twin_Tower    phases=3 length=0.072 units=km r1=0.13 x1=0.0851
New Line.F11 bus1=Sadashiv_Twin_Tower bus2=Verekar_2    phases=3 length=0.095 units=km r1=0.13 x1=0.0851
New Line.F12 bus1=Verekar_2 bus2=3_Way_Verekar_2    phases=3 length=0.02 units=km r1=0.13 x1=0.0851
New Line.F13 bus1=3_Way_Verekar_2  bus2=Bandodkar   phases=3 length=0.19 units=km r1=0.13 x1=0.0851
New Line.F14 bus1=3_Way_Verekar_2  bus2=Panditwada   phases=3 length=0.5 units=km r1=0.13 x1=0.0851

New Line.F15 bus1=Bandodkar    bus2=3_Way_Bagaytdar   phases=3 length=0.02 units=km r1=0.13 x1=0.0851
New Line.F16 bus1=3_Way_Bagaytdar  bus2=Kaziwada  phases=3 length=0.135 units=km r1=0.13 x1=0.0851
New Line.F18 bus1=Kaziwada bus2=Twin_Tower phases=3 length=0.15 units=km r1=0.13 x1=0.0851
New Line.F19 bus1=Twin_Tower bus2=Hotel_Menino phases=3 length=0.16 units=km r1=0.13 x1=0.0851
New Line.F20 bus1=Hotel_Menino bus2=3W_Canara phases=3 length=0.135 units=km r1=0.13 x1=0.0851
New Line.F21 bus1=3W_Canara   bus2=3_Way_Bhosle_1 phases=3 length=0.094 units=km r1=0.13 x1=0.0851
New Line.F22 bus1=3W_Canara bus2=Canara_Bank phases=3 length=0.02 units=km r1=0.13 x1=0.0851
New Line.F23 bus1=Canara_Bank bus2=KCA phases=3 length=0.2 units=km r1=0.13 x1=0.0851
New Line.F24 bus1=KCA bus2=2W_Ganganath phases=3 length=0.2 units=km r1=0.13 x1=0.0851


New Line.F25 bus1=3_Way_Bhosle_1 bus2=3_Way_Bhosle_2 phases=3 length=0.02 units=km r1=0.13 x1=0.0851
New Line.F26 bus1=3_Way_Bhosle_2 bus2=Super_Market phases=3 length=0.02 units=km r1=0.13 x1=0.0851